Version 4
SHEET 1 1712 680
WIRE 1296 -128 1216 -128
WIRE 1408 -128 1376 -128
WIRE 896 -64 864 -64
WIRE 1120 -64 960 -64
WIRE 1216 -64 1216 -128
WIRE 1216 -64 1200 -64
WIRE 864 -48 864 -64
WIRE 1216 -32 1216 -64
WIRE 1248 -32 1216 -32
WIRE 1408 -16 1408 -128
WIRE 1408 -16 1312 -16
WIRE 1440 -16 1408 -16
WIRE 1600 -16 1520 -16
WIRE 128 0 48 0
WIRE 272 0 208 0
WIRE 384 0 336 0
WIRE 496 0 384 0
WIRE 576 0 496 0
WIRE 688 0 640 0
WIRE 752 0 688 0
WIRE 896 0 832 0
WIRE 960 0 896 0
WIRE 1088 0 1024 0
WIRE 1248 0 1088 0
WIRE 384 32 384 0
WIRE 496 32 496 0
WIRE 1088 32 1088 0
WIRE -288 48 -288 16
WIRE 688 48 688 0
WIRE 896 64 896 0
WIRE 1280 96 1280 16
WIRE -288 144 -288 128
WIRE 384 160 384 112
WIRE 496 160 496 96
WIRE 688 160 688 128
WIRE 896 160 896 128
WIRE 624 384 624 336
WIRE 1008 400 768 400
WIRE 768 480 768 400
WIRE 848 480 768 480
WIRE 1008 496 1008 400
WIRE 1008 496 912 496
WIRE 1088 496 1088 112
WIRE 1088 496 1008 496
WIRE 624 512 624 464
WIRE 848 512 624 512
WIRE 624 544 624 512
WIRE 880 544 880 528
WIRE 624 656 624 624
FLAG 384 160 0
FLAG 496 160 0
FLAG 688 160 0
FLAG 896 160 0
FLAG -288 144 0
FLAG -288 16 vdd
FLAG 1280 -48 vdd
FLAG 1600 -16 Vout
IOPIN 1600 -16 Out
FLAG 1280 96 0
FLAG 624 656 0
FLAG 624 336 vdd
FLAG 880 544 0
FLAG 880 464 vdd
FLAG 864 -48 0
FLAG 48 0 Vin
IOPIN 48 0 In
SYMBOL res 224 -16 R90
WINDOW 0 0 56 VBottom 2
WINDOW 3 32 56 VTop 2
SYMATTR InstName R1
SYMATTR Value 330
SYMBOL res 368 16 R0
SYMATTR InstName R2
SYMATTR Value 1.80k
SYMBOL res 672 32 R0
SYMATTR InstName R3
SYMATTR Value 1.80k
SYMBOL res 1072 16 R0
SYMATTR InstName R4
SYMATTR Value 100k
SYMBOL res 1216 -80 R90
WINDOW 0 0 56 VBottom 2
WINDOW 3 32 56 VTop 2
SYMATTR InstName R5
SYMATTR Value 5.6k
SYMBOL res 1392 -144 R90
WINDOW 0 0 56 VBottom 2
WINDOW 3 32 56 VTop 2
SYMATTR InstName R6
SYMATTR Value 5.6k
SYMBOL res 1536 -32 R90
WINDOW 0 0 56 VBottom 2
WINDOW 3 32 56 VTop 2
SYMATTR InstName R7
SYMATTR Value 47
SYMBOL cap 336 -16 R90
WINDOW 0 0 32 VBottom 2
WINDOW 3 32 32 VTop 2
SYMATTR InstName C1
SYMATTR Value 220n
SYMBOL cap 480 32 R0
SYMATTR InstName C2
SYMATTR Value 27n
SYMBOL res 848 -16 R90
WINDOW 0 0 56 VBottom 2
WINDOW 3 32 56 VTop 2
SYMATTR InstName R8
SYMATTR Value 10k
SYMBOL cap 880 64 R0
SYMATTR InstName C5
SYMATTR Value 2.2n
SYMBOL cap 1024 -16 R90
WINDOW 0 0 32 VBottom 2
WINDOW 3 32 32 VTop 2
SYMATTR InstName C6
SYMATTR Value 47n
SYMBOL cap 640 -16 R90
WINDOW 0 0 32 VBottom 2
WINDOW 3 32 32 VTop 2
SYMATTR InstName C3
SYMATTR Value 340n
SYMBOL voltage -288 32 R0
WINDOW 123 0 0 Left 0
WINDOW 39 0 0 Left 0
SYMATTR InstName V2
SYMATTR Value 4.5
SYMBOL OpAmps\\UniversalOpAmp2 1280 -16 R0
SYMATTR InstName U1
SYMBOL res 608 368 R0
SYMATTR InstName R9
SYMATTR Value 18k
SYMBOL res 608 528 R0
SYMATTR InstName R10
SYMATTR Value 10k
SYMBOL MCP6001_AB 880 432 R0
SYMATTR InstName U2
SYMBOL cap 960 -80 R90
WINDOW 0 0 32 VBottom 2
WINDOW 3 32 32 VTop 2
SYMATTR InstName C4
SYMATTR Value 1µ
