Version 4
SHEET 1 1432 680
WIRE -640 -112 -640 -160
WIRE -480 -112 -480 -160
WIRE -640 0 -640 -32
WIRE -480 0 -480 -32
WIRE -64 160 -128 160
WIRE 144 160 80 160
WIRE 352 160 288 160
WIRE 576 160 496 160
WIRE 816 160 720 160
WIRE 1072 160 960 160
FLAG -480 0 0
FLAG -480 -160 Vin
FLAG -128 160 Vin
FLAG -640 0 0
FLAG -640 -160 VDD
FLAG 1072 160 Vout
SYMBOL pre_amp 0 160 R0
SYMATTR InstName PreAmplifier
SYMBOL voltage -480 -128 R0
WINDOW 123 0 0 Left 0
WINDOW 39 0 0 Left 0
SYMATTR InstName V1
SYMATTR Value SINE(0 0.0012 3k)
SYMBOL a_weighting_filter_para_testes 208 160 R0
SYMATTR InstName A-WeightingFilter
SYMBOL peak_detector 416 160 R0
SYMATTR InstName PeakDetector
SYMBOL voltage -640 -128 R0
WINDOW 123 0 0 Left 0
WINDOW 39 0 0 Left 0
SYMATTR InstName V2
SYMATTR Value 4.5
SYMBOL comparator 880 160 R0
SYMATTR InstName Comparator
SYMBOL pos_amp 640 160 R0
SYMATTR InstName PosAmplifier
TEXT -512 224 Left 2 !.tran 0 20s 10s
